<configuration> xmlns:xsi="http://www.w3.org/2001/XMLSchema-instance" 
xsi:noNamespaceSchemaLocation="http://sumo.dlr.de/xsd/sumoConfiguration.xsd">
     <input>
         <net-file value="red.net.xml"/>
         <route-files value="rutas.rou.xml"/>
     </input>
     <output>
        <fcd-output value="fcd_output.xml"/>
    </output>
     <time>
         <begin value="0"/>
         <end value="1000"/>
     </time>
 </configuration>