<?xml version="1.0" encoding="UTF-8"?>

<!-- generated on 2025-03-29 01:55:58 by Eclipse SUMO netedit Version 1.18.0
<configuration xmlns:xsi="http://www.w3.org/2001/XMLSchema-instance" xsi:noNamespaceSchemaLocation="http://sumo.dlr.de/xsd/neteditConfiguration.xsd">

    <input>
        <sumo-net-file value="Queretaro3.net.xml"/>
    </input>

    <output>
        <output-file value="Queretaro3.net.xml"/>
    </output>

    <processing>
        <geometry.min-radius.fix.railways value="false"/>
        <geometry.max-grade.fix value="false"/>
        <offset.disable-normalization value="true"/>
        <lefthand value="0"/>
    </processing>

    <junctions>
        <no-turnarounds value="true"/>
        <junctions.corner-detail value="5"/>
        <junctions.limit-turn-speed value="5.50"/>
        <rectangular-lane-cut value="0"/>
    </junctions>

    <pedestrian>
        <walkingareas value="0"/>
    </pedestrian>

</configuration>
-->

<net version="1.16" junctionCornerDetail="5" limitTurnSpeed="5.50" xmlns:xsi="http://www.w3.org/2001/XMLSchema-instance" xsi:noNamespaceSchemaLocation="http://sumo.dlr.de/xsd/net_file.xsd">

    <location netOffset="-349003.90,-2275636.35" convBoundary="0.00,39.90,9197.13,3941.60" origBoundary="-100.449005,20.574314,-100.351156,20.619045" projParameter="+proj=utm +zone=14 +ellps=WGS84 +datum=WGS84 +units=m +no_defs"/>

    <type id="highway.cycleway" priority="1" numLanes="1" speed="5.56" allow="bicycle" oneway="0" width="2.00"/>
    <type id="highway.footway" priority="1" numLanes="1" speed="2.78" allow="pedestrian" oneway="1" width="2.00"/>
    <type id="highway.primary" priority="12" numLanes="2" speed="27.78" disallow="tram rail_urban rail rail_electric rail_fast ship" oneway="0"/>
    <type id="highway.residential" priority="3" numLanes="1" speed="13.89" disallow="tram rail_urban rail rail_electric rail_fast ship" oneway="0"/>
    <type id="highway.secondary" priority="11" numLanes="1" speed="27.78" disallow="tram rail_urban rail rail_electric rail_fast ship" oneway="0"/>
    <type id="highway.secondary_link" priority="6" numLanes="1" speed="22.22" disallow="tram rail_urban rail rail_electric rail_fast ship" oneway="0"/>
    <type id="highway.service" priority="1" numLanes="1" speed="5.56" allow="pedestrian delivery bicycle" oneway="0"/>
    <type id="highway.steps" priority="1" numLanes="1" speed="1.39" allow="pedestrian" oneway="1" width="2.00"/>
    <type id="highway.tertiary" priority="10" numLanes="1" speed="22.22" disallow="tram rail_urban rail rail_electric rail_fast ship" oneway="0"/>
    <type id="highway.tertiary_link" priority="5" numLanes="1" speed="22.22" disallow="tram rail_urban rail rail_electric rail_fast ship" oneway="0"/>
    <type id="highway.trunk" priority="13" numLanes="2" speed="27.78" disallow="pedestrian bicycle tram rail_urban rail rail_electric rail_fast ship" oneway="0"/>
    <type id="highway.trunk_link" priority="8" numLanes="1" speed="22.22" disallow="pedestrian bicycle tram rail_urban rail rail_electric rail_fast ship" oneway="0"/>
    <type id="highway.unclassified" priority="4" numLanes="1" speed="13.89" disallow="tram rail_urban rail rail_electric rail_fast ship" oneway="0"/>
    <type id="railway.rail" priority="20" numLanes="1" speed="44.44" allow="rail" oneway="1"/>

    <edge id=":10043123782_0" function="internal">
        <lane id=":10043123782_0_0" index="0" disallow="tram rail_urban rail rail_electric rail_fast ship" speed="27.78" length="0.32" shape="4335.34,829.80 4335.11,830.01"/>
        <lane id=":10043123782_0_1" index="1" disallow="tram rail_urban rail rail_electric rail_fast ship" speed="27.78" length="0.32" shape="4337.53,832.13 4337.30,832.35"/>
        <lane id=":10043123782_0_2" index="2" disallow="tram rail_urban rail rail_electric rail_fast ship" speed="27.78" length="0.32" shape="4339.72,834.46 4339.49,834.68"/>
    </edge>
    <edge id=":10048001950_0" function="internal">
        <lane id=":10048001950_0_0" index="0" disallow="tram rail_urban rail rail_electric rail_fast ship" speed="27.78" length="5.01" shape="7362.38,2022.38 7358.30,2019.48"/>
        <lane id=":10048001950_0_1" index="1" disallow="tram rail_urban rail rail_electric rail_fast ship" speed="27.78" length="5.01" shape="7364.23,2019.77 7360.15,2016.87"/>
        <lane id=":10048001950_0_2" index="2" disallow="tram rail_urban rail rail_electric rail_fast ship" speed="27.78" length="5.01" shape="7366.08,2017.16 7362.01,2014.26"/>
    </edge>
    <edge id=":10048001951_0" function="internal">
        <lane id=":10048001951_0_0" index="0" disallow="tram rail_urban rail rail_electric rail_fast ship" speed="27.78" length="5.00" shape="7372.46,1999.86 7376.50,2002.81"/>
        <lane id=":10048001951_0_1" index="1" disallow="tram rail_urban rail rail_electric rail_fast ship" speed="27.78" length="5.00" shape="7370.58,2002.44 7374.62,2005.39"/>
        <lane id=":10048001951_0_2" index="2" disallow="tram rail_urban rail rail_electric rail_fast ship" speed="27.78" length="5.00" shape="7368.69,2005.03 7372.73,2007.98"/>
    </edge>
    <edge id=":10048001952_0" function="internal">
        <lane id=":10048001952_0_0" index="0" disallow="tram rail_urban rail rail_electric rail_fast ship" speed="27.78" length="4.99" shape="7385.68,2040.17 7381.76,2037.11"/>
        <lane id=":10048001952_0_1" index="1" disallow="tram rail_urban rail rail_electric rail_fast ship" speed="27.78" length="4.99" shape="7387.65,2037.65 7383.72,2034.58"/>
        <lane id=":10048001952_0_2" index="2" disallow="tram rail_urban rail rail_electric rail_fast ship" speed="27.78" length="4.99" shape="7389.62,2035.13 7385.68,2032.05"/>
    </edge>
    <edge id=":10048001953_0" function="internal">
        <lane id=":10048001953_0_0" index="0" disallow="tram rail_urban rail rail_electric rail_fast ship" speed="27.78" length="4.93" shape="7395.94,2019.91 7399.79,2022.90"/>
        <lane id=":10048001953_0_1" index="1" disallow="tram rail_urban rail rail_electric rail_fast ship" speed="27.78" length="4.93" shape="7393.96,2022.42 7397.86,2025.45"/>
        <lane id=":10048001953_0_2" index="2" disallow="tram rail_urban rail rail_electric rail_fast ship" speed="27.78" length="4.93" shape="7391.98,2024.94 7395.92,2027.99"/>
    </edge>
    <edge id=":10048001954_0" function="internal">
        <lane id=":10048001954_0_0" index="0" disallow="tram rail_urban rail rail_electric rail_fast ship" speed="27.78" length="7.61" shape="7370.12,2028.08 7364.08,2023.59"/>
        <lane id=":10048001954_0_1" index="1" disallow="tram rail_urban rail rail_electric rail_fast ship" speed="27.78" length="7.61" shape="7372.05,2025.53 7365.94,2020.99"/>
        <lane id=":10048001954_0_2" index="2" disallow="tram rail_urban rail rail_electric rail_fast ship" speed="27.78" length="7.61" shape="7373.98,2022.97 7367.80,2018.39"/>
    </edge>
    <edge id=":10048001954_3" function="internal">
        <lane id=":10048001954_3_0" index="0" disallow="pedestrian tram rail_urban rail rail_electric rail_fast ship" speed="10.26" length="12.13" shape="7377.70,2020.98 7373.89,2021.94 7370.66,2022.26 7368.01,2021.94 7365.94,2020.99"/>
        <lane id=":10048001954_3_1" index="1" disallow="pedestrian tram rail_urban rail rail_electric rail_fast ship" speed="8.85" length="8.90" shape="7376.46,2018.02 7373.52,2018.79 7371.10,2019.10 7369.19,2018.97 7367.80,2018.39"/>
    </edge>
    <edge id=":10594987203_0" function="internal">
        <lane id=":10594987203_0_0" index="0" disallow="tram rail_urban rail rail_electric rail_fast ship" speed="27.78" length="0.10" shape="4397.06,886.24 4397.06,886.24"/>
        <lane id=":10594987203_0_1" index="1" disallow="tram rail_urban rail rail_electric rail_fast ship" speed="27.78" length="0.10" shape="4394.44,888.07 4394.44,888.07"/>
        <lane id=":10594987203_0_2" index="2" disallow="tram rail_urban rail rail_electric rail_fast ship" speed="27.78" length="0.10" shape="4391.82,889.90 4391.82,889.90"/>
    </edge>
    <edge id=":10594987204_0" function="internal">
        <lane id=":10594987204_0_0" index="0" disallow="tram rail_urban rail rail_electric rail_fast ship" speed="27.78" length="0.30" shape="4412.49,908.36 4412.66,908.60"/>
        <lane id=":10594987204_0_1" index="1" disallow="tram rail_urban rail rail_electric rail_fast ship" speed="27.78" length="0.30" shape="4409.86,910.19 4410.04,910.43"/>
        <lane id=":10594987204_0_2" index="2" disallow="tram rail_urban rail rail_electric rail_fast ship" speed="27.78" length="0.30" shape="4407.24,912.02 4407.41,912.26"/>
    </edge>
    <edge id=":10595031005_0" function="internal">
        <lane id=":10595031005_0_0" index="0" disallow="tram rail_urban rail rail_electric rail_fast ship" speed="27.78" length="0.30" shape="4389.63,925.22 4389.46,924.97"/>
        <lane id=":10595031005_0_1" index="1" disallow="tram rail_urban rail rail_electric rail_fast ship" speed="27.78" length="0.30" shape="4392.26,923.40 4392.10,923.16"/>
        <lane id=":10595031005_0_2" index="2" disallow="tram rail_urban rail rail_electric rail_fast ship" speed="27.78" length="0.30" shape="4394.90,921.59 4394.73,921.35"/>
    </edge>
    <edge id=":10658864341_0" function="internal">
        <lane id=":10658864341_0_0" index="0" disallow="tram rail_urban rail rail_electric rail_fast ship" speed="27.78" length="0.30" shape="4095.55,1067.26 4095.77,1067.05"/>
        <lane id=":10658864341_0_1" index="1" disallow="tram rail_urban rail rail_electric rail_fast ship" speed="27.78" length="0.30" shape="4097.78,1069.55 4098.00,1069.35"/>
        <lane id=":10658864341_0_2" index="2" disallow="tram rail_urban rail rail_electric rail_fast ship" speed="27.78" length="0.30" shape="4100.01,1071.85 4100.23,1071.64"/>
    </edge>
    <edge id=":10658864342_0" function="internal">
        <lane id=":10658864342_0_0" index="0" disallow="pedestrian bicycle tram rail_urban rail rail_electric rail_fast ship" speed="25.00" length="6.39" shape="4082.65,1129.83 4081.25,1131.11 4080.30,1132.01 4079.48,1133.02 4078.49,1134.63"/>
    </edge>
    <edge id=":10658864342_1" function="internal">
        <lane id=":10658864342_1_0" index="0" disallow="pedestrian bicycle tram rail_urban rail rail_electric rail_fast ship" speed="27.78" length="22.02" shape="4082.65,1129.83 4067.42,1145.59"/>
        <lane id=":10658864342_1_1" index="1" disallow="pedestrian bicycle tram rail_urban rail rail_electric rail_fast ship" speed="27.78" length="22.02" shape="4080.44,1127.51 4065.14,1143.34"/>
        <lane id=":10658864342_1_2" index="2" disallow="pedestrian bicycle tram rail_urban rail rail_electric rail_fast ship" speed="27.78" length="22.02" shape="4078.24,1125.18 4062.86,1141.10"/>
    </edge>
    <edge id=":10658864344_0" function="internal">
        <lane id=":10658864344_0_0" index="0" disallow="tram rail_urban rail rail_electric rail_fast ship" speed="27.78" length="0.30" shape="4125.57,1101.45 4125.35,1101.67"/>
        <lane id=":10658864344_0_1" index="1" disallow="tram rail_urban rail rail_electric rail_fast ship" speed="27.78" length="0.30" shape="4123.31,1099.19 4123.09,1099.40"/>
        <lane id=":10658864344_0_2" index="2" disallow="tram rail_urban rail rail_electric rail_fast ship" speed="27.78" length="0.30" shape="4121.05,1096.92 4120.83,1097.13"/>
        <lane id=":10658864344_0_3" index="3" disallow="tram rail_urban rail rail_electric rail_fast ship" speed="27.78" length="0.30" shape="4118.79,1094.66 4118.58,1094.87"/>
    </edge>
    <edge id=":10660516194_0" function="internal">
        <lane id=":10660516194_0_0" index="0" disallow="tram rail_urban rail rail_electric rail_fast ship" speed="27.78" length="7.23" shape="3691.86,1822.60 3689.87,1830.09"/>
        <lane id=":10660516194_0_1" index="1" disallow="tram rail_urban rail rail_electric rail_fast ship" speed="27.78" length="7.23" shape="3688.63,1822.28 3686.77,1829.26"/>
        <lane id=":10660516194_0_2" index="2" disallow="tram rail_urban rail rail_electric rail_fast ship" speed="27.78" length="7.23" shape="3685.41,1821.95 3683.68,1828.44"/>
    </edge>
    <edge id=":10660516194_3" function="internal">
        <lane id=":10660516194_3_0" index="0" disallow="pedestrian bicycle tram rail_urban rail rail_electric rail_fast ship" speed="25.00" length="7.50" shape="3688.03,1822.21 3687.82,1824.33 3687.62,1825.78 3687.31,1827.20 3686.77,1829.26"/>
        <lane id=":10660516194_3_1" index="1" disallow="pedestrian bicycle tram rail_urban rail rail_electric rail_fast ship" speed="25.00" length="7.50" shape="3688.03,1822.21 3687.33,1824.26 3686.09,1825.37 3684.72,1826.45 3683.68,1828.44"/>
    </edge>
    <edge id=":10660637573_0" function="internal">
        <lane id=":10660637573_0_0" index="0" disallow="pedestrian bicycle tram rail_urban rail rail_electric rail_fast ship" speed="25.00" length="12.51" shape="3407.46,2774.49 3406.88,2771.27 3405.78,2768.59 3405.02,2765.70 3405.43,2761.81"/>
        <lane id=":10660637573_0_1" index="1" disallow="pedestrian bicycle tram rail_urban rail rail_electric rail_fast ship" speed="25.00" length="12.51" shape="3407.46,2774.49 3407.38,2771.34 3407.37,2768.85 3407.67,2766.22 3408.51,2762.66"/>
    </edge>
    <edge id=":10660637573_2" function="internal">
        <lane id=":10660637573_2_0" index="0" disallow="tram rail_urban rail rail_electric rail_fast ship" speed="27.78" length="20.77" shape="3397.15,2781.10 3402.35,2760.95"/>
        <lane id=":10660637573_2_1" index="1" disallow="tram rail_urban rail rail_electric rail_fast ship" speed="27.78" length="20.77" shape="3400.24,2781.92 3405.43,2761.81"/>
        <lane id=":10660637573_2_2" index="2" disallow="tram rail_urban rail rail_electric rail_fast ship" speed="27.78" length="20.77" shape="3403.34,2782.73 3408.51,2762.66"/>
    </edge>
    <edge id=":1067922546_0" function="internal">
        <lane id=":1067922546_0_0" index="0" disallow="tram rail_urban rail rail_electric rail_fast ship" speed="22.22" length="0.30" shape="5042.08,926.63 5041.96,926.80"/>
        <lane id=":1067922546_0_1" index="1" disallow="tram rail_urban rail rail_electric rail_fast ship" speed="22.22" length="0.30" shape="5039.50,924.74 5039.32,924.98"/>
        <lane id=":1067922546_0_2" index="2" disallow="tram rail_urban rail rail_electric rail_fast ship" speed="22.22" length="0.30" shape="5036.92,922.85 5036.69,923.17"/>
    </edge>
    <edge id=":1067922698_0" function="internal">
        <lane id=":1067922698_0_0" index="0" disallow="tram rail_urban rail rail_electric rail_fast ship" speed="22.22" length="0.29" shape="5009.34,972.92 5009.15,973.19"/>
        <lane id=":1067922698_0_1" index="1" disallow="tram rail_urban rail rail_electric rail_fast ship" speed="22.22" length="0.29" shape="5006.73,971.07 5006.56,971.31"/>
        <lane id=":1067922698_0_2" index="2" disallow="tram rail_urban rail rail_electric rail_fast ship" speed="22.22" length="0.29" shape="5004.13,969.22 5003.98,969.42"/>
    </edge>
    <edge id=":11201038145_0" function="internal">
        <lane id=":11201038145_0_0" index="0" disallow="tram rail_urban rail rail_electric rail_fast ship" speed="27.78" length="7.98" shape="4451.84,715.68 4457.47,710.01"/>
        <lane id=":11201038145_0_1" index="1" disallow="tram rail_urban rail rail_electric rail_fast ship" speed="27.78" length="7.98" shape="4454.11,717.94 4459.73,712.28"/>
        <lane id=":11201038145_0_2" index="2" disallow="tram rail_urban rail rail_electric rail_fast ship" speed="27.78" length="7.98" shape="4456.38,720.20 4461.99,714.55"/>
    </edge>
    <edge id=":11201038145_3" function="internal">
        <lane id=":11201038145_3_0" index="0" disallow="pedestrian bicycle tram rail_urban rail rail_electric rail_fast ship" speed="25.00" length="11.79" shape="4456.38,720.20 4457.44,717.32 4456.37,714.52 4455.40,711.83 4456.77,709.31"/>
        <lane id=":11201038145_3_1" index="1" disallow="pedestrian bicycle tram rail_urban rail rail_electric rail_fast ship" speed="25.00" length="9.41" shape="4456.38,720.20 4457.62,717.88 4457.55,715.70 4457.55,713.62 4459.05,711.60"/>
        <lane id=":11201038145_3_2" index="2" disallow="pedestrian bicycle tram rail_urban rail rail_electric rail_fast ship" speed="25.00" length="8.08" shape="4456.38,720.20 4457.89,718.35 4458.71,716.87 4459.60,715.48 4461.34,713.89"/>
        <lane id=":11201038145_3_3" index="3" disallow="pedestrian bicycle tram rail_urban rail rail_electric rail_fast ship" speed="25.00" length="8.36" shape="4456.38,720.20 4458.27,718.67 4459.85,718.01 4461.50,717.43 4463.62,716.18"/>
    </edge>
    <edge id=":11828578010_0" function="internal">
        <lane id=":11828578010_0_0" index="0" disallow="pedestrian bicycle tram rail_urban rail rail_electric rail_fast ship" speed="27.78" length="8.72" shape="3604.40,2019.15 3604.95,2016.77 3604.52,2014.98 3603.96,2013.16 3604.13,2010.63"/>
    </edge>
    <edge id=":11828578010_1" function="internal">
        <lane id=":11828578010_1_0" index="0" disallow="pedestrian bicycle tram rail_urban rail rail_electric rail_fast ship" speed="27.78" length="8.13" shape="3602.30,2018.70 3604.13,2010.63"/>
        <lane id=":11828578010_1_1" index="1" disallow="pedestrian bicycle tram rail_urban rail rail_electric rail_fast ship" speed="27.78" length="8.13" shape="3605.43,2019.37 3607.22,2011.45"/>
        <lane id=":11828578010_1_2" index="2" disallow="pedestrian bicycle tram rail_urban rail rail_electric rail_fast ship" speed="27.78" length="8.13" shape="3608.56,2020.05 3610.32,2012.26"/>
    </edge>
    <edge id=":11828578031_0" function="internal">
        <lane id=":11828578031_0_0" index="0" disallow="tram rail_urban rail rail_electric rail_fast ship" speed="27.78" length="0.28" shape="4204.56,1022.91 4204.39,1023.07"/>
        <lane id=":11828578031_0_1" index="1" disallow="tram rail_urban rail rail_electric rail_fast ship" speed="27.78" length="0.28" shape="4202.35,1020.59 4202.15,1020.79"/>
        <lane id=":11828578031_0_2" index="2" disallow="tram rail_urban rail rail_electric rail_fast ship" speed="27.78" length="0.28" shape="4200.15,1018.27 4199.90,1018.51"/>
    </edge>
    <edge id=":1208607974_0" function="internal">
        <lane id=":1208607974_0_0" index="0" disallow="pedestrian bicycle tram rail_urban rail rail_electric rail_fast ship" speed="27.78" length="7.68" shape="4794.19,385.35 4795.55,383.38 4796.20,381.82 4796.91,380.32 4798.43,378.50"/>
        <lane id=":1208607974_0_1" index="1" disallow="pedestrian bicycle tram rail_urban rail rail_electric rail_fast ship" speed="27.78" length="7.68" shape="4796.63,387.42 4797.93,385.52 4798.54,384.01 4799.20,382.56 4800.65,380.80"/>
        <lane id=":1208607974_0_2" index="2" disallow="pedestrian bicycle tram rail_urban rail rail_electric rail_fast ship" speed="27.78" length="7.68" shape="4799.07,389.49 4800.30,387.66 4800.87,386.20 4801.49,384.79 4802.87,383.11"/>
        <lane id=":1208607974_0_3" index="3" disallow="pedestrian bicycle tram rail_urban rail rail_electric rail_fast ship" speed="27.78" length="7.68" shape="4799.07,389.49 4800.64,388.04 4801.98,387.36 4803.38,386.72 4805.09,385.41"/>
    </edge>
    <edge id=":12190707103_0" function="internal">
        <lane id=":12190707103_0_0" index="0" allow="bicycle" speed="4.34" length="4.09" width="2.00" shape="5364.12,1690.09 5364.02,1686.01"/>
    </edge>
    <edge id=":12190707110_0" function="internal">
        <lane id=":12190707110_0_0" index="0" disallow="tram rail_urban rail rail_electric rail_fast ship" speed="13.89" length="2.43" shape="5425.12,1467.97 5427.23,1469.17"/>
    </edge>
    <edge id=":12190707110_1" function="internal">
        <lane id=":12190707110_1_0" index="0" disallow="tram rail_urban rail rail_electric rail_fast ship" speed="13.89" length="2.64" shape="5428.99,1466.50 5426.70,1465.19"/>
    </edge>
    <edge id=":12190707112_0" function="internal">
        <lane id=":12190707112_0_0" index="0" disallow="tram rail_urban rail rail_electric rail_fast ship" speed="22.22" length="1.81" shape="5227.75,2153.28 5229.45,2153.90"/>
    </edge>
    <edge id=":12190707114_0" function="internal">
        <lane id=":12190707114_0_0" index="0" allow="pedestrian delivery bicycle" speed="3.65" length="4.67" shape="5215.88,2201.01 5215.05,2199.84 5214.96,2198.95 5215.62,2198.34 5217.03,2198.03"/>
    </edge>
    <edge id=":12190707114_1" function="internal">
        <lane id=":12190707114_1_0" index="0" allow="bicycle" speed="5.51" length="7.12" width="2.00" shape="5215.94,2204.46 5217.24,2197.47"/>
    </edge>
    <edge id=":12190707117_0" function="internal">
        <lane id=":12190707117_0_0" index="0" disallow="tram rail_urban rail rail_electric rail_fast ship" speed="13.89" length="3.83" shape="5175.24,2347.72 5171.58,2346.57"/>
    </edge>
    <edge id=":12190707118_0" function="internal">
        <lane id=":12190707118_0_0" index="0" disallow="tram rail_urban rail rail_electric rail_fast ship" speed="13.89" length="1.70" shape="5256.15,2058.99 5254.50,2058.58"/>
    </edge>
    <edge id=":12190725469_0" function="internal">
        <lane id=":12190725469_0_0" index="0" disallow="tram rail_urban rail rail_electric rail_fast ship" speed="27.78" length="0.30" shape="8178.77,1518.15 8178.47,1518.10"/>
        <lane id=":12190725469_0_1" index="1" disallow="tram rail_urban rail rail_electric rail_fast ship" speed="27.78" length="0.30" shape="8179.24,1514.98 8178.94,1514.94"/>
        <lane id=":12190725469_0_2" index="2" disallow="tram rail_urban rail rail_electric rail_fast ship" speed="27.78" length="0.30" shape="8179.71,1511.82 8179.41,1511.77"/>
    </edge>
    <edge id=":12192130414_0" function="internal">
        <lane id=":12192130414_0_0" index="0" disallow="tram rail_urban rail rail_electric rail_fast ship" speed="13.89" length="2.54" shape="5402.66,1548.56 5405.10,1549.25"/>
    </edge>
    <edge id=":12192130415_0" function="internal">
        <lane id=":12192130415_0_0" index="0" disallow="tram rail_urban rail rail_electric rail_fast ship" speed="13.89" length="2.50" shape="5413.34,1510.65 5415.67,1511.54"/>
    </edge>
    <edge id=":12192130415_1" function="internal">
        <lane id=":12192130415_1_0" index="0" disallow="tram rail_urban rail rail_electric rail_fast ship" speed="13.89" length="2.70" shape="5416.97,1508.62 5414.45,1507.64"/>
    </edge>
    <edge id=":12192130433_0" function="internal">
        <lane id=":12192130433_0_0" index="0" disallow="tram rail_urban rail rail_electric rail_fast ship" speed="22.22" length="1.48" shape="5325.42,1821.87 5324.04,1821.32"/>
    </edge>
    <edge id=":12192130433_1" function="internal">
        <lane id=":12192130433_1_0" index="0" allow="bicycle" speed="4.06" length="2.77" width="2.00" shape="5325.61,1821.30 5327.38,1819.18"/>
    </edge>
    <edge id=":12192130441_0" function="internal">
        <lane id=":12192130441_0_0" index="0" disallow="tram rail_urban rail rail_electric rail_fast ship" speed="27.78" length="0.62" shape="5450.18,1379.90 5449.61,1379.70"/>
        <lane id=":12192130441_0_1" index="1" disallow="tram rail_urban rail rail_electric rail_fast ship" speed="27.78" length="0.62" shape="5449.12,1382.92 5448.54,1382.71"/>
        <lane id=":12192130441_0_2" index="2" disallow="tram rail_urban rail rail_electric rail_fast ship" speed="27.78" length="0.62" shape="5448.06,1385.94 5447.48,1385.73"/>
        <lane id=":12192130441_0_3" index="3" disallow="tram rail_urban rail rail_electric rail_fast ship" speed="27.78" length="0.62" shape="5447.00,1388.96 5446.41,1388.75"/>
        <lane id=":12192130441_0_4" index="4" disallow="tram rail_urban rail rail_electric rail_fast ship" speed="27.78" length="0.62" shape="5445.94,1391.97 5445.35,1391.77"/>
    </edge>
    <edge id=":12192130441_5" function="internal">
        <lane id=":12192130441_5_0" index="0" allow="bicycle" speed="4.52" length="3.32" width="2.00" shape="5445.74,1392.54 5446.69,1392.98 5447.33,1393.51 5447.66,1394.14 5447.68,1394.87"/>
    </edge>
    <edge id=":12192130442_0" function="internal">
        <lane id=":12192130442_0_0" index="0" disallow="tram rail_urban rail rail_electric rail_fast ship" speed="27.78" length="1.00" shape="5442.21,1407.68 5441.26,1407.36"/>
        <lane id=":12192130442_0_1" index="1" disallow="tram rail_urban rail rail_electric rail_fast ship" speed="27.78" length="1.00" shape="5443.23,1404.65 5442.28,1404.33"/>
        <lane id=":12192130442_0_2" index="2" disallow="tram rail_urban rail rail_electric rail_fast ship" speed="27.78" length="1.00" shape="5444.26,1401.62 5443.31,1401.30"/>
        <lane id=":12192130442_0_3" index="3" disallow="tram rail_urban rail rail_electric rail_fast ship" speed="27.78" length="1.00" shape="5445.28,1398.59 5444.33,1398.27"/>
    </edge>
    <edge id=":12192130442_4" function="internal">
        <lane id=":12192130442_4_0" index="0" allow="bicycle" speed="6.08" length="9.12" width="2.00" shape="5447.65,1395.07 5446.86,1398.45 5445.85,1400.71 5444.60,1401.85 5443.12,1401.87"/>
        <lane id=":12192130442_4_1" index="1" allow="bicycle" speed="5.01" length="5.96" width="2.00" shape="5447.65,1395.07 5447.13,1397.06 5446.37,1398.35 5445.38,1398.94 5444.14,1398.84"/>
    </edge>
    <edge id=":12192130444_0" function="internal">
        <lane id=":12192130444_0_0" index="0" allow="bicycle" speed="5.49" length="6.00" width="2.00" shape="5494.26,1191.46 5497.56,1186.45"/>
    </edge>
    <edge id=":12192130446_0" function="internal">
        <lane id=":12192130446_0_0" index="0" allow="pedestrian delivery bicycle" speed="3.65" length="4.67" shape="5515.50,1106.02 5514.55,1104.93 5514.38,1104.05 5514.98,1103.38 5516.35,1102.93"/>
    </edge>
    <edge id=":12192130446_1" function="internal">
        <lane id=":12192130446_1_0" index="0" allow="bicycle" speed="5.56" length="7.06" width="2.00" shape="5514.77,1109.08 5515.00,1107.58 5515.36,1105.25 5515.86,1103.15 5516.51,1102.35"/>
    </edge>
    <edge id=":12192130447_0" function="internal">
        <lane id=":12192130447_0_0" index="0" allow="bicycle" speed="5.35" length="5.96" width="2.00" shape="5510.60,1121.77 5513.15,1116.38"/>
    </edge>
    <edge id=":12192130447_1" function="internal">
        <lane id=":12192130447_1_0" index="0" allow="bicycle" speed="5.56" length="9.41" width="2.00" shape="5511.11,1125.56 5513.15,1116.38"/>
    </edge>
    <edge id=":12192130447_2" function="internal">
        <lane id=":12192130447_2_0" index="0" allow="bicycle" speed="5.75" length="6.95" width="2.00" shape="5511.11,1125.56 5511.15,1118.62"/>
    </edge>
    <edge id=":12192130449_0" function="internal">
        <lane id=":12192130449_0_0" index="0" disallow="tram rail_urban rail rail_electric rail_fast ship" speed="27.78" length="2.68" shape="5529.37,1026.51 5531.66,1027.93"/>
        <lane id=":12192130449_0_1" index="1" disallow="tram rail_urban rail rail_electric rail_fast ship" speed="27.78" length="2.68" shape="5531.06,1023.79 5533.34,1025.21"/>
        <lane id=":12192130449_0_2" index="2" disallow="tram rail_urban rail rail_electric rail_fast ship" speed="27.78" length="2.68" shape="5532.75,1021.08 5535.03,1022.49"/>
    </edge>
    <edge id=":12192130451_0" function="internal">
        <lane id=":12192130451_0_0" index="0" disallow="tram rail_urban rail rail_electric rail_fast ship" speed="27.78" length="2.79" shape="5539.41,1003.32 5537.04,1001.84"/>
        <lane id=":12192130451_0_1" index="1" disallow="tram rail_urban rail rail_electric rail_fast ship" speed="27.78" length="2.79" shape="5537.71,1006.03 5535.34,1004.55"/>
        <lane id=":12192130451_0_2" index="2" disallow="tram rail_urban rail rail_electric rail_fast ship" speed="27.78" length="2.79" shape="5536.02,1008.74 5533.65,1007.26"/>
    </edge>
    <edge id=":12200717465_0" function="internal">
        <lane id=":12200717465_0_0" index="0" allow="bicycle" speed="4.14" length="3.38" width="2.00" shape="7392.67,2014.46 7392.35,2015.13 7392.40,2015.83 7392.82,2016.56 7393.61,2017.31"/>
    </edge>
    <edge id=":12200717465_1" function="internal">
        <lane id=":12200717465_1_0" index="0" allow="bicycle" speed="5.56" length="12.40" width="2.00" shape="7392.67,2014.46 7390.52,2017.01 7388.44,2018.95 7386.11,2020.61 7383.23,2022.33"/>
    </edge>
    <edge id=":12200717465_2" function="internal">
        <lane id=":12200717465_2_0" index="0" disallow="tram rail_urban rail rail_electric rail_fast ship" speed="27.78" length="3.49" shape="7390.50,2015.63 7393.24,2017.78"/>
        <lane id=":12200717465_2_1" index="1" disallow="tram rail_urban rail rail_electric rail_fast ship" speed="27.78" length="3.49" shape="7388.52,2018.14 7391.26,2020.30"/>
        <lane id=":12200717465_2_2" index="2" disallow="tram rail_urban rail rail_electric rail_fast ship" speed="27.78" length="3.49" shape="7386.55,2020.66 7389.28,2022.81"/>
    </edge>
    <edge id=":12200717465_5" function="internal">
        <lane id=":12200717465_5_0" index="0" allow="bicycle" speed="3.84" length="3.18" width="2.00" shape="7386.18,2021.13 7383.23,2022.33"/>
    </edge>
    <edge id=":12200717466_0" function="internal">
        <lane id=":12200717466_0_0" index="0" disallow="tram rail_urban rail rail_electric rail_fast ship" speed="27.78" length="2.22" shape="7376.41,2032.96 7374.65,2031.60"/>
        <lane id=":12200717466_0_1" index="1" disallow="tram rail_urban rail rail_electric rail_fast ship" speed="27.78" length="2.22" shape="7378.37,2030.43 7376.62,2029.07"/>
        <lane id=":12200717466_0_2" index="2" disallow="tram rail_urban rail rail_electric rail_fast ship" speed="27.78" length="2.22" shape="7380.34,2027.90 7378.59,2026.55"/>
    </edge>
    <edge id=":12200717466_3" function="internal">
        <lane id=":12200717466_3_0" index="0" allow="bicycle" speed="6.29" length="7.10" width="2.00" shape="7380.70,2024.01 7376.25,2029.55"/>
        <lane id=":12200717466_3_1" index="1" allow="bicycle" speed="4.79" length="3.90" width="2.00" shape="7380.70,2024.01 7378.22,2027.02"/>
    </edge>