<?xml version="1.0" encoding="UTF-8"?>

<!-- generated on 2025-03-28 23:19:52 by Eclipse SUMO netedit Version 1.22.0 -->
<net version="1.22" xmlns:xsi="http://www.w3.org/2001/XMLSchema-instance" xsi:noNamespaceSchemaLocation="http://sumo.dlr.de/xsd/net_file.xsd">

    <location netOffset="0.00,0.00" convBoundary="0.00,0.00,500.00,100.00" origBoundary="0.00,0.00,500.00,100.00" projParameter="!"/>

    <edge id="E1" from="J1" to="J2" priority="3">
        <lane id="E1_0" index="0" speed="13.89" length="100.00" shape="0.00,50.00 100.00,50.00"/>
    </edge>

    <edge id="E2" from="J2" to="J3" priority="3">
        <lane id="E2_0" index="0" speed="13.89" length="100.00" shape="100.00,50.00 200.00,50.00"/>
    </edge>

    <edge id="E3" from="J3" to="J4" priority="3">
        <lane id="E3_0" index="0" speed="13.89" length="100.00" shape="200.00,50.00 300.00,50.00"/>
    </edge>

    <junction id="J1" type="dead_end" x="0.00" y="50.00" incLanes="" intLanes="" shape="0.00,50.00"/>
    <junction id="J2" type="traffic_light" x="100.00" y="50.00" incLanes="E1_0" intLanes="" shape="100.00,50.00">
        <request index="0" response="0" foes="0"/>
    </junction>
    <junction id="J3" type="traffic_light" x="200.00" y="50.00" incLanes="E2_0" intLanes="" shape="200.00,50.00">
        <request index="0" response="0" foes="0"/>
    </junction>
    <junction id="J4" type="dead_end" x="300.00" y="50.00" incLanes="E3_0" intLanes="" shape="300.00,50.00"/>

    <connection from="E1" to="E2" fromLane="0" toLane="0" dir="s" state="M"/>
    <connection from="E2" to="E3" fromLane="0" toLane="0" dir="s" state="M"/>

    <tlLogic id="J2" type="static" programID="fixed" offset="0">
        <phase duration="31" state="G"/>
        <phase duration="6" state="y"/>
        <phase duration="31" state="r"/>
    </tlLogic>

    <tlLogic id="J3" type="static" programID="fixed" offset="31">
        <phase duration="31" state="G"/>
        <phase duration="6" state="y"/>
        <phase duration="31" state="r"/>
    </tlLogic>

</net>