<?xml version="1.0" encoding="UTF-8"?>

<!-- generated on 2025-03-28 23:19:52 by Eclipse SUMO netedit Version 1.22.0 -->
<net version="1.22" xmlns:xsi="http://www.w3.org/2001/XMLSchema-instance" xsi:noNamespaceSchemaLocation="http://sumo.dlr.de/xsd/net_file.xsd">

    <location netOffset="0.00,0.00" convBoundary="-50.00,-50.00,150.00,150.00" origBoundary="-50.00,-50.00,150.00,150.00" projParameter="!"/>

    <!-- Edges (calles) - ahora formando un círculo -->
    <edge id="E1" from="J1" to="J2" priority="3">
        <lane id="E1_0" index="0" speed="13.89" length="78.54" shape="0.00,50.00 50.00,85.36"/>
    </edge>

    <edge id="E2" from="J2" to="J3" priority="3">
        <lane id="E2_0" index="0" speed="13.89" length="78.54" shape="50.00,85.36 85.36,50.00"/>
    </edge>

    <edge id="E3" from="J3" to="J4" priority="3">
        <lane id="E3_0" index="0" speed="13.89" length="78.54" shape="85.36,50.00 50.00,14.64"/>
    </edge>

    <edge id="E4" from="J4" to="J1" priority="3">
        <lane id="E4_0" index="0" speed="13.89" length="78.54" shape="50.00,14.64 0.00,50.00"/>
    </edge>

    <!-- Junctions (intersecciones) -->
    <junction id="J1" type="traffic_light" x="0.00" y="50.00" incLanes="E4_0" intLanes="" shape="0.00,50.00">
        <request index="0" response="0" foes="0"/>
    </junction>
    <junction id="J2" type="traffic_light" x="50.00" y="85.36" incLanes="E1_0" intLanes="" shape="50.00,85.36">
        <request index="0" response="0" foes="0"/>
    </junction>
    <junction id="J3" type="traffic_light" x="85.36" y="50.00" incLanes="E2_0" intLanes="" shape="85.36,50.00">
        <request index="0" response="0" foes="0"/>
    </junction>
    <junction id="J4" type="traffic_light" x="50.00" y="14.64" incLanes="E3_0" intLanes="" shape="50.00,14.64">
        <request index="0" response="0" foes="0"/>
    </junction>

    <!-- Conexiones entre edges -->
    <connection from="E1" to="E2" fromLane="0" toLane="0" dir="s" state="M"/>
    <connection from="E2" to="E3" fromLane="0" toLane="0" dir="s" state="M"/>
    <connection from="E3" to="E4" fromLane="0" toLane="0" dir="s" state="M"/>
    <connection from="E4" to="E1" fromLane="0" toLane="0" dir="s" state="M"/>

    <!-- Semáforos (ahora en todas las intersecciones) -->
    <tlLogic id="J1" type="static" programID="fixed" offset="62">
        <phase duration="31" state="G"/>
        <phase duration="6" state="y"/>
        <phase duration="31" state="r"/>
    </tlLogic>

    <tlLogic id="J2" type="static" programID="fixed" offset="0">
        <phase duration="31" state="G"/>
        <phase duration="6" state="y"/>
        <phase duration="31" state="r"/>
    </tlLogic>

    <tlLogic id="J3" type="static" programID="fixed" offset="31">
        <phase duration="31" state="G"/>
        <phase duration="6" state="y"/>
        <phase duration="31" state="r"/>
    </tlLogic>

    <tlLogic id="J4" type="static" programID="fixed" offset="93">
        <phase duration="31" state="G"/>
        <phase duration="6" state="y"/>
        <phase duration="31" state="r"/>
    </tlLogic>

</net>