<?xml version="1.0" encoding="UTF-8"?>
<net version="1.22" xmlns:xsi="http://www.w3.org/2001/XMLSchema-instance" xsi:noNamespaceSchemaLocation="http://sumo.dlr.de/xsd/net_file.xsd">

    <location netOffset="0.00,0.00" convBoundary="0.00,0.00,500.00,500.00" origBoundary="0.00,0.00,500.00,500.00" projParameter="!"/>

    <!-- Outer Rectangle Edges -->
    <edge id="E1" from="J1" to="J2" priority="3">
        <lane id="E1_0" index="0" speed="13.89" length="100.00" shape="0.00,0.00 100.00,0.00"/>
    </edge>
    <edge id="E2" from="J2" to="J3" priority="3">
        <lane id="E2_0" index="0" speed="13.89" length="100.00" shape="100.00,0.00 100.00,100.00"/>
    </edge>
    <edge id="E3" from="J3" to="J4" priority="3">
        <lane id="E3_0" index="0" speed="13.89" length="100.00" shape="100.00,100.00 0.00,100.00"/>
    </edge>
    <edge id="E4" from="J4" to="J1" priority="3">
        <lane id="E4_0" index="0" speed="13.89" length="100.00" shape="0.00,100.00 0.00,0.00"/>
    </edge>

    <!-- Diagonal Edges (New Route) -->
    <edge id="E5" from="J1" to="JC" priority="2">
        <lane id="E5_0" index="0" speed="13.89" length="70.71" shape="0.00,0.00 50.00,50.00"/>
    </edge>
    <edge id="E6" from="JC" to="J3" priority="2">
        <lane id="E6_0" index="0" speed="13.89" length="70.71" shape="50.00,50.00 100.00,100.00"/>
    </edge>

    <!-- Junctions -->
    <junction id="J1" type="traffic_light" x="0.00" y="0.00" incLanes="E4_0" intLanes="" shape="0.00,0.00">
        <request index="0" response="0" foes="0"/>
    </junction>
    <junction id="J2" type="traffic_light" x="100.00" y="0.00" incLanes="E1_0" intLanes="" shape="100.00,0.00">
        <request index="0" response="0" foes="0"/>
    </junction>
    <junction id="J3" type="traffic_light" x="100.00" y="100.00" incLanes="E2_0" intLanes="" shape="100.00,100.00">
        <request index="0" response="0" foes="0"/>
    </junction>
    <junction id="J4" type="traffic_light" x="0.00" y="100.00" incLanes="E3_0" intLanes="" shape="0.00,100.00">
        <request index="0" response="0" foes="0"/>
    </junction>

    <!-- Center Junction -->
    <junction id="JC" type="priority" x="50.00" y="50.00" incLanes="" intLanes="" shape="50.00,50.00">
    </junction>

    <!-- Connections -->
    <connection from="E1" to="E2" fromLane="0" toLane="0" dir="r" state="M"/>
    <connection from="E2" to="E3" fromLane="0" toLane="0" dir="r" state="M"/>
    <connection from="E3" to="E4" fromLane="0" toLane="0" dir="r" state="M"/>
    <connection from="E4" to="E1" fromLane="0" toLane="0" dir="r" state="M"/>

    <!-- New Route Connections -->
    <connection from="E5" to="E6" fromLane="0" toLane="0" dir="s" state="M"/>

    <!-- Traffic Light Logics -->
    <tlLogic id="J1" type="static" programID="0" offset="0">
        <phase duration="15" state="r"/>  <!-- Red for 15 seconds -->
        <phase duration="31" state="G"/> <!-- Green for 31 seconds -->
        <phase duration="6" state="y"/>  <!-- Yellow for 6 seconds -->
    </tlLogic>

    <tlLogic id="J2" type="static" programID="0" offset="10">
        <phase duration="31" state="G"/>
        <phase duration="6" state="y"/>
        <phase duration="31" state="r"/>
    </tlLogic>

    <tlLogic id="J3" type="static" programID="0" offset="20">
        <phase duration="31" state="G"/>
        <phase duration="6" state="y"/>
        <phase duration="31" state="r"/>
    </tlLogic>

    <tlLogic id="J4" type="static" programID="0" offset="30">
        <phase duration="31" state="G"/>
        <phase duration="6" state="y"/>
        <phase duration="31" state="r"/>
    </tlLogic>

</net>