<routes xmlns:xsi="http://www.w3.org/2001/XMLSchema-instance" xsi:noNamespaceSchemaLocation="http://sumo.dlr.de/xsd/routes_file.xsd">
    <vType id="car" maxSpeed="13.89" sigma="0"/>
    <vehicle id="veh0" type="car" depart="0">
        <route edges="E1 E2 E3 E4"/>
    </vehicle>
    <vehicle id="veh1" type="car" depart="5">
        <route edges="E5 E6"/>
    </vehicle>
</routes>